  
       XFOIL         Version 6.99
  
 Calculated polar for: NACA 0012                                       
  
 1 1 Reynolds number fixed          Mach number fixed         
  
 xtrf =   1.000 (top)        1.000 (bottom)  
 Mach =   0.000     Re =    15.841 e 6     Ncrit =   9.000
  
   alpha    CL        CD       CDp       CM     Top_Xtr  Bot_Xtr
  ------ -------- --------- --------- -------- -------- --------
  -4.000  -0.4563   0.00570   0.00125   0.0013   0.5755   0.0665
  -3.900  -0.4450   0.00565   0.00121   0.0013   0.5699   0.0700
  -3.800  -0.4337   0.00563   0.00119   0.0013   0.5615   0.0722
  -3.700  -0.4222   0.00561   0.00116   0.0013   0.5544   0.0758
  -3.600  -0.4109   0.00557   0.00113   0.0012   0.5482   0.0804
  -3.500  -0.3996   0.00556   0.00110   0.0012   0.5383   0.0830
  -3.400  -0.3881   0.00554   0.00109   0.0012   0.5334   0.0846
  -3.300  -0.3767   0.00553   0.00107   0.0011   0.5232   0.0894
  -3.200  -0.3654   0.00548   0.00103   0.0011   0.5170   0.0945
  -3.100  -0.3540   0.00548   0.00102   0.0011   0.5073   0.0965
  -3.000  -0.3426   0.00545   0.00099   0.0011   0.5028   0.1024
  -2.900  -0.3313   0.00542   0.00097   0.0010   0.4951   0.1073
  -2.800  -0.3198   0.00541   0.00095   0.0010   0.4883   0.1092
  -2.700  -0.3084   0.00539   0.00093   0.0010   0.4798   0.1155
  -2.600  -0.2971   0.00536   0.00090   0.0009   0.4726   0.1212
  -2.500  -0.2856   0.00535   0.00089   0.0009   0.4666   0.1237
  -2.400  -0.2743   0.00532   0.00087   0.0009   0.4566   0.1330
  -2.300  -0.2629   0.00530   0.00085   0.0008   0.4508   0.1361
  -2.200  -0.2515   0.00530   0.00084   0.0008   0.4420   0.1424
  -2.100  -0.2400   0.00526   0.00082   0.0008   0.4371   0.1485
  -2.000  -0.2286   0.00526   0.00081   0.0007   0.4291   0.1526
  -1.900  -0.2172   0.00524   0.00079   0.0007   0.4222   0.1596
  -1.800  -0.2058   0.00521   0.00077   0.0007   0.4166   0.1657
  -1.700  -0.1943   0.00521   0.00077   0.0006   0.4064   0.1701
  -1.600  -0.1830   0.00518   0.00075   0.0006   0.4019   0.1788
  -1.400  -0.1601   0.00516   0.00073   0.0005   0.3853   0.1909
  -1.300  -0.1487   0.00515   0.00072   0.0005   0.3796   0.1965
  -1.200  -0.1372   0.00514   0.00071   0.0005   0.3724   0.2036
  -1.100  -0.1258   0.00513   0.00070   0.0004   0.3649   0.2101
  -1.000  -0.1143   0.00513   0.00069   0.0004   0.3570   0.2143
  -0.900  -0.1029   0.00510   0.00068   0.0003   0.3516   0.2238
  -0.700  -0.0801   0.00509   0.00067   0.0003   0.3366   0.2380
  -0.600  -0.0686   0.00509   0.00067   0.0002   0.3290   0.2431
  -0.500  -0.0571   0.00509   0.00067   0.0002   0.3218   0.2491
  -0.400  -0.0458   0.00508   0.00066   0.0002   0.3136   0.2583
  -0.300  -0.0343   0.00508   0.00066   0.0001   0.3073   0.2632
  -0.200  -0.0229   0.00506   0.00065   0.0001   0.3022   0.2730
  -0.100  -0.0114   0.00508   0.00066   0.0000   0.2920   0.2785
   0.000   0.0000   0.00506   0.00065  -0.0000   0.2872   0.2867
   0.100   0.0114   0.00508   0.00066  -0.0000   0.2772   0.2922
   0.200   0.0229   0.00506   0.00065  -0.0001   0.2727   0.3018
   0.300   0.0343   0.00508   0.00066  -0.0001   0.2633   0.3074
   0.400   0.0458   0.00508   0.00066  -0.0002   0.2587   0.3134
   0.500   0.0571   0.00509   0.00067  -0.0002   0.2479   0.3220
   0.600   0.0687   0.00510   0.00067  -0.0002   0.2432   0.3265
   0.700   0.0801   0.00509   0.00067  -0.0003   0.2375   0.3364
   0.800   0.0915   0.00511   0.00068  -0.0003   0.2284   0.3414
   0.900   0.1030   0.00511   0.00068  -0.0004   0.2240   0.3504
   1.000   0.1143   0.00513   0.00069  -0.0004   0.2140   0.3570
   1.100   0.1259   0.00512   0.00070  -0.0004   0.2107   0.3653
   1.200   0.1371   0.00515   0.00071  -0.0004   0.1993   0.3720
   1.300   0.1487   0.00514   0.00072  -0.0005   0.1965   0.3813
   1.400   0.1601   0.00516   0.00073  -0.0005   0.1909   0.3869
   1.500   0.1715   0.00518   0.00074  -0.0006   0.1823   0.3925
   1.600   0.1830   0.00517   0.00074  -0.0006   0.1801   0.4015
   1.700   0.1944   0.00521   0.00077  -0.0006   0.1708   0.4060
   1.800   0.2058   0.00521   0.00077  -0.0007   0.1656   0.4156
   1.900   0.2172   0.00524   0.00079  -0.0007   0.1591   0.4220
   2.000   0.2286   0.00526   0.00081  -0.0007   0.1513   0.4296
   2.100   0.2400   0.00526   0.00082  -0.0008   0.1487   0.4385
   2.200   0.2514   0.00529   0.00084  -0.0008   0.1422   0.4434
   2.300   0.2628   0.00530   0.00085  -0.0008   0.1358   0.4521
   2.400   0.2743   0.00533   0.00087  -0.0009   0.1319   0.4565
   2.500   0.2856   0.00535   0.00089  -0.0009   0.1247   0.4660
   2.600   0.2971   0.00536   0.00090  -0.0010   0.1217   0.4728
   2.700   0.3084   0.00539   0.00093  -0.0010   0.1161   0.4807
   2.800   0.3198   0.00541   0.00095  -0.0010   0.1093   0.4872
   2.900   0.3313   0.00542   0.00097  -0.0011   0.1075   0.4943
   3.000   0.3426   0.00545   0.00099  -0.0011   0.1030   0.5016
   3.100   0.3540   0.00548   0.00102  -0.0011   0.0967   0.5079
   3.200   0.3654   0.00548   0.00103  -0.0011   0.0941   0.5185
   3.300   0.3767   0.00553   0.00107  -0.0011   0.0893   0.5233
   3.400   0.3881   0.00554   0.00109  -0.0012   0.0844   0.5322
   3.500   0.3996   0.00556   0.00110  -0.0012   0.0829   0.5388
   3.600   0.4109   0.00558   0.00113  -0.0012   0.0798   0.5470
   3.700   0.4222   0.00562   0.00116  -0.0012   0.0741   0.5540
   3.800   0.4337   0.00564   0.00119  -0.0013   0.0720   0.5607
   3.900   0.4450   0.00565   0.00121  -0.0013   0.0699   0.5697
   4.000   0.4563   0.00570   0.00125  -0.0013   0.0667   0.5753
   4.100   0.4677   0.00571   0.00127  -0.0014   0.0629   0.5850
   4.200   0.4791   0.00573   0.00130  -0.0014   0.0617   0.5911
   4.300   0.4904   0.00575   0.00133  -0.0014   0.0593   0.6007
   4.400   0.5017   0.00580   0.00137  -0.0014   0.0555   0.6072
   4.500   0.5130   0.00581   0.00139  -0.0014   0.0535   0.6159
   4.600   0.5245   0.00583   0.00142  -0.0015   0.0525   0.6221
   4.700   0.5357   0.00587   0.00146  -0.0015   0.0504   0.6303
   4.800   0.5470   0.00590   0.00149  -0.0015   0.0477   0.6383
   4.900   0.5583   0.00592   0.00153  -0.0015   0.0456   0.6466
   5.000   0.5697   0.00595   0.00156  -0.0015   0.0444   0.6541
   5.100   0.5809   0.00598   0.00160  -0.0016   0.0427   0.6624
   5.200   0.5922   0.00602   0.00164  -0.0016   0.0405   0.6701
   5.300   0.6035   0.00604   0.00167  -0.0016   0.0392   0.6777
   5.400   0.6149   0.00605   0.00170  -0.0016   0.0386   0.6867
   5.500   0.6262   0.00609   0.00174  -0.0016   0.0376   0.6938
   5.600   0.6373   0.00612   0.00178  -0.0016   0.0360   0.7026
   5.700   0.6486   0.00616   0.00182  -0.0016   0.0341   0.7089
   5.800   0.6599   0.00618   0.00186  -0.0016   0.0333   0.7178
   5.900   0.6712   0.00621   0.00190  -0.0017   0.0328   0.7247
   6.000   0.6823   0.00625   0.00194  -0.0017   0.0313   0.7346
   6.100   0.6936   0.00629   0.00199  -0.0017   0.0301   0.7406
   6.200   0.7047   0.00632   0.00203  -0.0017   0.0288   0.7502
   6.300   0.7160   0.00635   0.00207  -0.0017   0.0282   0.7572
   6.400   0.7273   0.00637   0.00211  -0.0017   0.0279   0.7669
   6.500   0.7385   0.00640   0.00215  -0.0017   0.0273   0.7734
   6.600   0.7496   0.00644   0.00220  -0.0017   0.0265   0.7821
   6.700   0.7607   0.00649   0.00225  -0.0017   0.0254   0.7898
   6.800   0.7719   0.00652   0.00229  -0.0017   0.0243   0.7981
   6.900   0.7831   0.00655   0.00234  -0.0017   0.0239   0.8056
   7.000   0.7943   0.00658   0.00238  -0.0017   0.0236   0.8130
   7.100   0.8055   0.00662   0.00243  -0.0017   0.0232   0.8214
   7.200   0.8165   0.00667   0.00248  -0.0016   0.0223   0.8278
   7.300   0.8276   0.00671   0.00254  -0.0016   0.0216   0.8364
   7.400   0.8387   0.00676   0.00259  -0.0016   0.0207   0.8413
   7.500   0.8498   0.00680   0.00264  -0.0016   0.0201   0.8504
   7.600   0.8609   0.00683   0.00268  -0.0016   0.0200   0.8566
   7.700   0.8720   0.00687   0.00274  -0.0016   0.0198   0.8639
   7.800   0.8831   0.00691   0.00278  -0.0015   0.0195   0.8714
   7.900   0.8941   0.00696   0.00284  -0.0015   0.0190   0.8771
   8.000   0.9050   0.00701   0.00290  -0.0015   0.0185   0.8847
   8.100   0.9160   0.00706   0.00296  -0.0014   0.0179   0.8901
   8.200   0.9269   0.00711   0.00302  -0.0014   0.0174   0.8966
   8.300   0.9378   0.00716   0.00308  -0.0013   0.0168   0.9033
   8.400   0.9489   0.00721   0.00313  -0.0013   0.0167   0.9075
   8.500   0.9598   0.00725   0.00319  -0.0013   0.0165   0.9142
   8.600   0.9707   0.00729   0.00324  -0.0012   0.0163   0.9203
   8.700   0.9817   0.00735   0.00330  -0.0012   0.0161   0.9238
   8.800   0.9924   0.00741   0.00337  -0.0011   0.0157   0.9298
   8.900   1.0031   0.00747   0.00344  -0.0010   0.0153   0.9354
   9.000   1.0139   0.00754   0.00350  -0.0009   0.0148   0.9389
   9.100   1.0246   0.00760   0.00357  -0.0009   0.0144   0.9431
   9.200   1.0352   0.00766   0.00364  -0.0007   0.0140   0.9485
   9.300   1.0459   0.00772   0.00370  -0.0007   0.0137   0.9526
   9.400   1.0568   0.00778   0.00376  -0.0006   0.0137   0.9552
   9.500   1.0674   0.00783   0.00382  -0.0005   0.0136   0.9594
   9.600   1.0778   0.00788   0.00388  -0.0004   0.0135   0.9638
   9.700   1.0884   0.00795   0.00395  -0.0003   0.0134   0.9672
   9.800   1.0992   0.00802   0.00401  -0.0002   0.0132   0.9694
   9.900   1.1095   0.00808   0.00409  -0.0000   0.0130   0.9726
  10.000   1.1196   0.00815   0.00416   0.0002   0.0128   0.9764
  10.100   1.1299   0.00823   0.00423   0.0003   0.0125   0.9794
  10.200   1.1403   0.00832   0.00431   0.0005   0.0122   0.9816
  10.300   1.1508   0.00840   0.00439   0.0006   0.0119   0.9833
  10.400   1.1611   0.00848   0.00447   0.0007   0.0115   0.9861
  10.500   1.1716   0.00855   0.00454   0.0008   0.0112   0.9885
  10.600   1.1822   0.00862   0.00462   0.0009   0.0111   0.9905
  10.700   1.1928   0.00869   0.00468   0.0010   0.0111   0.9921
  10.800   1.2033   0.00877   0.00475   0.0011   0.0111   0.9934
  10.900   1.2147   0.00884   0.00483   0.0010   0.0110   0.9943
  11.000   1.2266   0.00892   0.00491   0.0008   0.0109   0.9950
  11.100   1.2384   0.00901   0.00499   0.0006   0.0108   0.9957
  11.200   1.2501   0.00910   0.00507   0.0004   0.0106   0.9964
  11.300   1.2618   0.00919   0.00516   0.0002   0.0105   0.9970
  11.400   1.2733   0.00929   0.00526   0.0001   0.0103   0.9976
  11.500   1.2848   0.00939   0.00535  -0.0001   0.0102   0.9982
  11.600   1.2961   0.00950   0.00545  -0.0002   0.0099   0.9987
  11.700   1.3075   0.00960   0.00555  -0.0003   0.0097   0.9991
  11.800   1.3188   0.00970   0.00565  -0.0004   0.0095   0.9994
  11.900   1.3301   0.00981   0.00575  -0.0006   0.0092   0.9997
  12.000   1.3414   0.00991   0.00585  -0.0007   0.0090   0.9999
  12.100   1.3515   0.01000   0.00594  -0.0005   0.0089   1.0000
  12.200   1.3612   0.01009   0.00603  -0.0003   0.0088   1.0000
  12.300   1.3711   0.01018   0.00611  -0.0001   0.0088   1.0000
  12.400   1.3811   0.01026   0.00620   0.0001   0.0088   1.0000
  12.500   1.3911   0.01035   0.00628   0.0003   0.0088   1.0000
  12.600   1.4011   0.01044   0.00637   0.0004   0.0087   1.0000
  12.700   1.4111   0.01053   0.00647   0.0006   0.0087   1.0000
  12.800   1.4212   0.01063   0.00656   0.0008   0.0087   1.0000
  12.900   1.4312   0.01073   0.00665   0.0009   0.0086   1.0000
  13.000   1.4412   0.01082   0.00675   0.0011   0.0086   1.0000
  13.100   1.4511   0.01093   0.00685   0.0012   0.0085   1.0000
  13.200   1.4611   0.01103   0.00696   0.0014   0.0084   1.0000
  13.300   1.4709   0.01114   0.00706   0.0015   0.0084   1.0000
  13.400   1.4807   0.01126   0.00718   0.0017   0.0082   1.0000
  13.500   1.4905   0.01137   0.00729   0.0019   0.0081   1.0000
  13.600   1.5002   0.01150   0.00741   0.0021   0.0080   1.0000
  13.700   1.5099   0.01162   0.00754   0.0023   0.0079   1.0000
  13.800   1.5195   0.01175   0.00766   0.0025   0.0078   1.0000
  13.900   1.5291   0.01187   0.00779   0.0027   0.0077   1.0000
  14.000   1.5386   0.01201   0.00792   0.0029   0.0075   1.0000
  14.100   1.5481   0.01213   0.00805   0.0031   0.0074   1.0000
  14.200   1.5576   0.01226   0.00818   0.0033   0.0072   1.0000
  14.300   1.5671   0.01239   0.00831   0.0035   0.0071   1.0000
  14.400   1.5765   0.01252   0.00844   0.0037   0.0070   1.0000
  14.500   1.5859   0.01266   0.00857   0.0039   0.0069   1.0000
  14.600   1.5953   0.01278   0.00870   0.0041   0.0068   1.0000
  14.700   1.6048   0.01290   0.00882   0.0043   0.0068   1.0000
  14.800   1.6143   0.01302   0.00893   0.0046   0.0068   1.0000
  14.900   1.6237   0.01314   0.00906   0.0048   0.0068   1.0000
  15.000   1.6330   0.01326   0.00918   0.0050   0.0068   1.0000
  15.100   1.6423   0.01338   0.00931   0.0052   0.0068   1.0000
  15.200   1.6515   0.01351   0.00944   0.0054   0.0068   1.0000
  15.300   1.6607   0.01364   0.00957   0.0057   0.0067   1.0000
  15.400   1.6698   0.01377   0.00970   0.0059   0.0067   1.0000
  15.500   1.6788   0.01390   0.00984   0.0062   0.0067   1.0000
  15.600   1.6878   0.01404   0.00997   0.0064   0.0067   1.0000
  15.700   1.6967   0.01418   0.01012   0.0067   0.0066   1.0000
  15.800   1.7055   0.01432   0.01026   0.0070   0.0066   1.0000
  15.900   1.7142   0.01447   0.01041   0.0073   0.0066   1.0000
  16.000   1.7228   0.01462   0.01056   0.0076   0.0065   1.0000
  16.100   1.7313   0.01477   0.01072   0.0079   0.0065   1.0000
  16.200   1.7397   0.01492   0.01088   0.0083   0.0065   1.0000
  16.300   1.7480   0.01509   0.01104   0.0086   0.0064   1.0000
  16.400   1.7561   0.01526   0.01122   0.0090   0.0063   1.0000
  16.500   1.7641   0.01543   0.01139   0.0094   0.0063   1.0000
  16.600   1.7720   0.01561   0.01157   0.0098   0.0062   1.0000
  16.700   1.7797   0.01579   0.01176   0.0102   0.0062   1.0000
  16.800   1.7872   0.01598   0.01195   0.0107   0.0061   1.0000
  16.900   1.7946   0.01617   0.01215   0.0111   0.0060   1.0000
  17.000   1.8018   0.01637   0.01234   0.0116   0.0060   1.0000
  17.100   1.8089   0.01656   0.01254   0.0121   0.0059   1.0000
  17.200   1.8153   0.01678   0.01276   0.0127   0.0058   1.0000
  17.300   1.8214   0.01697   0.01297   0.0134   0.0057   1.0000
  17.400   1.8267   0.01717   0.01317   0.0142   0.0056   1.0000
  17.500   1.8317   0.01737   0.01338   0.0151   0.0056   1.0000
  17.600   1.8365   0.01759   0.01360   0.0160   0.0055   1.0000
  17.700   1.8412   0.01781   0.01383   0.0169   0.0054   1.0000
  17.800   1.8462   0.01804   0.01407   0.0177   0.0054   1.0000
  17.900   1.8509   0.01828   0.01432   0.0185   0.0053   1.0000
  18.000   1.8553   0.01854   0.01459   0.0193   0.0053   1.0000
  18.100   1.8601   0.01880   0.01486   0.0200   0.0052   1.0000
  18.200   1.8647   0.01906   0.01513   0.0208   0.0052   1.0000
  18.300   1.8692   0.01934   0.01542   0.0215   0.0051   1.0000
  18.400   1.8735   0.01964   0.01573   0.0223   0.0051   1.0000
  18.500   1.8782   0.01993   0.01603   0.0229   0.0051   1.0000
  18.600   1.8827   0.02022   0.01634   0.0236   0.0051   1.0000
  18.700   1.8870   0.02053   0.01665   0.0242   0.0051   1.0000
  18.800   1.8916   0.02084   0.01698   0.0248   0.0051   1.0000
  18.900   1.8959   0.02118   0.01733   0.0254   0.0051   1.0000
  19.000   1.9001   0.02153   0.01768   0.0260   0.0051   1.0000
  19.100   1.9042   0.02188   0.01805   0.0266   0.0051   1.0000
  19.200   1.9081   0.02226   0.01844   0.0271   0.0051   1.0000
  19.300   1.9120   0.02265   0.01885   0.0276   0.0051   1.0000
  19.400   1.9157   0.02307   0.01927   0.0282   0.0051   1.0000
  19.500   1.9194   0.02350   0.01972   0.0286   0.0051   1.0000
  19.600   1.9229   0.02395   0.02017   0.0291   0.0050   1.0000
  19.700   1.9261   0.02442   0.02067   0.0296   0.0050   1.0000
  19.800   1.9293   0.02491   0.02117   0.0300   0.0050   1.0000
  19.900   1.9322   0.02544   0.02171   0.0304   0.0050   1.0000
  20.000   1.9353   0.02597   0.02225   0.0307   0.0050   1.0000
  20.100   1.9380   0.02654   0.02284   0.0311   0.0050   1.0000
  20.200   1.9406   0.02713   0.02344   0.0314   0.0050   1.0000
  20.300   1.9429   0.02774   0.02408   0.0317   0.0050   1.0000
  20.400   1.9452   0.02838   0.02473   0.0320   0.0050   1.0000
  20.500   1.9471   0.02907   0.02544   0.0322   0.0050   1.0000
  20.600   1.9490   0.02978   0.02617   0.0324   0.0050   1.0000
  20.700   1.9509   0.03051   0.02691   0.0325   0.0050   1.0000
  20.800   1.9521   0.03132   0.02774   0.0327   0.0050   1.0000
  20.900   1.9535   0.03211   0.02855   0.0328   0.0050   1.0000
  21.000   1.9542   0.03299   0.02944   0.0328   0.0050   1.0000
  21.100   1.9546   0.03390   0.03037   0.0329   0.0050   1.0000
  21.200   1.9552   0.03481   0.03131   0.0329   0.0050   1.0000
  21.300   1.9552   0.03583   0.03234   0.0328   0.0049   1.0000
  21.400   1.9548   0.03689   0.03343   0.0327   0.0049   1.0000
  21.500   1.9546   0.03795   0.03451   0.0325   0.0049   1.0000
  21.600   1.9537   0.03910   0.03568   0.0323   0.0049   1.0000
  21.700   1.9521   0.04034   0.03695   0.0321   0.0049   1.0000
  21.800   1.9502   0.04161   0.03824   0.0319   0.0049   1.0000
  21.900   1.9485   0.04289   0.03954   0.0316   0.0049   1.0000
  22.000   1.9457   0.04433   0.04101   0.0312   0.0049   1.0000
  22.100   1.9428   0.04582   0.04253   0.0307   0.0049   1.0000
  22.200   1.9391   0.04741   0.04415   0.0302   0.0048   1.0000
  22.300   1.9360   0.04894   0.04571   0.0297   0.0048   1.0000
  22.400   1.9311   0.05073   0.04752   0.0291   0.0048   1.0000
  22.500   1.9260   0.05255   0.04938   0.0284   0.0048   1.0000
  22.600   1.9198   0.05453   0.05138   0.0276   0.0048   1.0000
  22.700   1.9143   0.05643   0.05332   0.0269   0.0048   1.0000
  22.800   1.9076   0.05852   0.05544   0.0261   0.0048   1.0000
  22.900   1.9003   0.06073   0.05768   0.0251   0.0048   1.0000
  23.000   1.8920   0.06309   0.06009   0.0241   0.0048   1.0000
  23.100   1.8824   0.06564   0.06268   0.0229   0.0048   1.0000
  23.200   1.8714   0.06837   0.06545   0.0217   0.0048   1.0000
  23.300   1.8603   0.07118   0.06829   0.0204   0.0047   1.0000
  23.400   1.8495   0.07396   0.07111   0.0191   0.0047   1.0000
  23.500   1.8385   0.07678   0.07398   0.0178   0.0047   1.0000
  23.600   1.8259   0.07987   0.07711   0.0163   0.0047   1.0000
  23.700   1.8111   0.08327   0.08056   0.0147   0.0048   1.0000
  23.800   1.7935   0.08711   0.08446   0.0128   0.0047   1.0000
  23.900   1.7766   0.09093   0.08832   0.0108   0.0047   1.0000
  24.000   1.7588   0.09490   0.09235   0.0088   0.0048   1.0000
  24.100   1.7394   0.09918   0.09669   0.0065   0.0048   1.0000
  24.200   1.7186   0.10364   0.10121   0.0041   0.0048   1.0000
  24.300   1.6966   0.10837   0.10600   0.0016   0.0048   1.0000
  24.400   1.6745   0.11320   0.11089  -0.0011   0.0048   1.0000
  24.500   1.6603   0.11678   0.11451  -0.0031   0.0048   1.0000
  24.600   1.6358   0.12211   0.11992  -0.0062   0.0048   1.0000
  24.800   1.5840   0.13342   0.13136  -0.0130   0.0048   1.0000
  24.900   1.5568   0.13952   0.13753  -0.0168   0.0048   1.0000
  25.200   1.4893   0.15585   0.15405  -0.0276   0.0048   1.0000
  25.600   1.3947   0.18041   0.17889  -0.0452   0.0049   1.0000
  26.000   1.3052   0.20645   0.20519  -0.0648   0.0048   1.0000
  26.400   1.2519   0.22655   0.22547  -0.0802   0.0048   1.0000
  26.600   1.2301   0.23602   0.23502  -0.0874   0.0047   1.0000
  26.700   1.2272   0.23862   0.23764  -0.0895   0.0047   1.0000
  26.800   1.2113   0.24506   0.24413  -0.0943   0.0046   1.0000
  26.900   1.2101   0.24726   0.24634  -0.0961   0.0046   1.0000
  27.100   1.1944   0.25572   0.25485  -0.1025   0.0045   1.0000
  27.200   1.1943   0.25756   0.25671  -0.1040   0.0045   1.0000
  27.300   1.1798   0.26421   0.26340  -0.1088   0.0043   1.0000
  27.400   1.1805   0.26584   0.26503  -0.1102   0.0042   1.0000
  27.600   1.1683   0.27406   0.27330  -0.1162   0.0040   1.0000
  27.700   1.1690   0.27576   0.27501  -0.1176   0.0039   1.0000
  27.800   1.1591   0.28159   0.28088  -0.1216   0.0038   1.0000
  27.900   1.1605   0.28310   0.28239  -0.1229   0.0037   1.0000
  28.000   1.1618   0.28459   0.28389  -0.1242   0.0036   1.0000
  28.100   1.1638   0.28584   0.28514  -0.1254   0.0036   1.0000
  28.200   1.1658   0.28707   0.28637  -0.1265   0.0036   1.0000
  28.300   1.1676   0.28839   0.28770  -0.1277   0.0036   1.0000
  28.400   1.1693   0.28972   0.28903  -0.1289   0.0036   1.0000
  28.600   1.1651   0.29565   0.29500  -0.1332   0.0036   1.0000
  28.700   1.1672   0.29682   0.29618  -0.1344   0.0036   1.0000
  28.800   1.1694   0.29798   0.29734  -0.1355   0.0036   1.0000
  28.900   1.1716   0.29913   0.29849  -0.1366   0.0035   1.0000
  29.000   1.1737   0.30025   0.29961  -0.1377   0.0035   1.0000
  29.100   1.1757   0.30144   0.30080  -0.1389   0.0035   1.0000
  29.200   1.1778   0.30261   0.30198  -0.1400   0.0035   1.0000
  29.300   1.1796   0.30392   0.30329  -0.1412   0.0035   1.0000
  29.400   1.1807   0.30553   0.30491  -0.1426   0.0035   1.0000
  29.500   1.1755   0.31015   0.30956  -0.1457   0.0034   1.0000
  29.600   1.1777   0.31126   0.31067  -0.1468   0.0034   1.0000
  29.700   1.1799   0.31237   0.31178  -0.1479   0.0034   1.0000
  29.800   1.1820   0.31347   0.31289  -0.1490   0.0034   1.0000
  29.900   1.1841   0.31462   0.31404  -0.1502   0.0033   1.0000
  30.000   1.1862   0.31575   0.31517  -0.1513   0.0033   1.0000
