  
       XFOIL         Version 6.99
  
 Calculated polar for: NACA 0012                                       
  
 1 1 Reynolds number fixed          Mach number fixed         
  
 xtrf =   1.000 (top)        1.000 (bottom)  
 Mach =   0.000     Re =     0.000 e 6     Ncrit =   9.000
  
   alpha    CL        CD       CDp       CM     Top_Xtr  Bot_Xtr
  ------ -------- --------- --------- -------- -------- --------
  -6.000  -0.7237   0.00000  -0.00111   0.0084   0.0000   0.0000
  -5.900  -0.7116   0.00000  -0.00110   0.0082   0.0000   0.0000
  -5.800  -0.6996   0.00000  -0.00110   0.0081   0.0000   0.0000
  -5.700  -0.6876   0.00000  -0.00110   0.0079   0.0000   0.0000
  -5.600  -0.6756   0.00000  -0.00110   0.0078   0.0000   0.0000
  -5.500  -0.6635   0.00000  -0.00110   0.0077   0.0000   0.0000
  -5.400  -0.6515   0.00000  -0.00110   0.0075   0.0000   0.0000
  -5.300  -0.6395   0.00000  -0.00109   0.0074   0.0000   0.0000
  -5.200  -0.6274   0.00000  -0.00109   0.0073   0.0000   0.0000
  -5.100  -0.6154   0.00000  -0.00109   0.0071   0.0000   0.0000
  -5.000  -0.6034   0.00000  -0.00109   0.0070   0.0000   0.0000
  -4.900  -0.5913   0.00000  -0.00109   0.0068   0.0000   0.0000
  -4.800  -0.5793   0.00000  -0.00109   0.0067   0.0000   0.0000
  -4.700  -0.5673   0.00000  -0.00109   0.0066   0.0000   0.0000
  -4.600  -0.5552   0.00000  -0.00109   0.0064   0.0000   0.0000
  -4.500  -0.5432   0.00000  -0.00108   0.0063   0.0000   0.0000
  -4.400  -0.5311   0.00000  -0.00108   0.0061   0.0000   0.0000
  -4.300  -0.5191   0.00000  -0.00108   0.0060   0.0000   0.0000
  -4.200  -0.5070   0.00000  -0.00108   0.0059   0.0000   0.0000
  -4.100  -0.4950   0.00000  -0.00108   0.0057   0.0000   0.0000
  -4.000  -0.4829   0.00000  -0.00108   0.0056   0.0000   0.0000
  -3.900  -0.4709   0.00000  -0.00108   0.0055   0.0000   0.0000
  -3.800  -0.4588   0.00000  -0.00108   0.0053   0.0000   0.0000
  -3.700  -0.4468   0.00000  -0.00108   0.0052   0.0000   0.0000
  -3.600  -0.4347   0.00000  -0.00107   0.0050   0.0000   0.0000
  -3.500  -0.4226   0.00000  -0.00107   0.0049   0.0000   0.0000
  -3.400  -0.4106   0.00000  -0.00107   0.0048   0.0000   0.0000
  -3.300  -0.3985   0.00000  -0.00107   0.0046   0.0000   0.0000
  -3.200  -0.3864   0.00000  -0.00107   0.0045   0.0000   0.0000
  -3.100  -0.3744   0.00000  -0.00107   0.0043   0.0000   0.0000
  -3.000  -0.3623   0.00000  -0.00107   0.0042   0.0000   0.0000
  -2.900  -0.3502   0.00000  -0.00107   0.0041   0.0000   0.0000
  -2.800  -0.3382   0.00000  -0.00107   0.0039   0.0000   0.0000
  -2.700  -0.3261   0.00000  -0.00107   0.0038   0.0000   0.0000
  -2.600  -0.3140   0.00000  -0.00107   0.0036   0.0000   0.0000
  -2.500  -0.3020   0.00000  -0.00107   0.0035   0.0000   0.0000
  -2.400  -0.2899   0.00000  -0.00106   0.0034   0.0000   0.0000
  -2.300  -0.2778   0.00000  -0.00106   0.0032   0.0000   0.0000
  -2.200  -0.2657   0.00000  -0.00106   0.0031   0.0000   0.0000
  -2.100  -0.2537   0.00000  -0.00106   0.0029   0.0000   0.0000
  -2.000  -0.2416   0.00000  -0.00106   0.0028   0.0000   0.0000
  -1.900  -0.2295   0.00000  -0.00106   0.0027   0.0000   0.0000
  -1.800  -0.2174   0.00000  -0.00106   0.0025   0.0000   0.0000
  -1.700  -0.2054   0.00000  -0.00106   0.0024   0.0000   0.0000
  -1.600  -0.1933   0.00000  -0.00106   0.0022   0.0000   0.0000
  -1.500  -0.1812   0.00000  -0.00106   0.0021   0.0000   0.0000
  -1.400  -0.1691   0.00000  -0.00106   0.0020   0.0000   0.0000
  -1.300  -0.1571   0.00000  -0.00106   0.0018   0.0000   0.0000
  -1.200  -0.1450   0.00000  -0.00106   0.0017   0.0000   0.0000
  -1.100  -0.1329   0.00000  -0.00106   0.0015   0.0000   0.0000
  -1.000  -0.1208   0.00000  -0.00106   0.0014   0.0000   0.0000
  -0.900  -0.1087   0.00000  -0.00106   0.0013   0.0000   0.0000
  -0.800  -0.0966   0.00000  -0.00106   0.0011   0.0000   0.0000
  -0.700  -0.0846   0.00000  -0.00106   0.0010   0.0000   0.0000
  -0.600  -0.0725   0.00000  -0.00106   0.0008   0.0000   0.0000
  -0.500  -0.0604   0.00000  -0.00106   0.0007   0.0000   0.0000
  -0.400  -0.0483   0.00000  -0.00106   0.0006   0.0000   0.0000
  -0.300  -0.0362   0.00000  -0.00106   0.0004   0.0000   0.0000
  -0.200  -0.0242   0.00000  -0.00106   0.0003   0.0000   0.0000
  -0.100  -0.0121   0.00000  -0.00106   0.0001   0.0000   0.0000
   0.000   0.0000   0.00000  -0.00106  -0.0000   0.0000   0.0000
   0.100   0.0121   0.00000  -0.00106  -0.0001   0.0000   0.0000
   0.200   0.0242   0.00000  -0.00106  -0.0003   0.0000   0.0000
   0.300   0.0363   0.00000  -0.00106  -0.0004   0.0000   0.0000
   0.400   0.0483   0.00000  -0.00106  -0.0006   0.0000   0.0000
   0.500   0.0604   0.00000  -0.00106  -0.0007   0.0000   0.0000
   0.600   0.0725   0.00000  -0.00106  -0.0008   0.0000   0.0000
   0.700   0.0846   0.00000  -0.00106  -0.0010   0.0000   0.0000
   0.800   0.0967   0.00000  -0.00106  -0.0011   0.0000   0.0000
   0.900   0.1088   0.00000  -0.00106  -0.0013   0.0000   0.0000
   1.000   0.1208   0.00000  -0.00106  -0.0014   0.0000   0.0000
   1.100   0.1329   0.00000  -0.00106  -0.0015   0.0000   0.0000
   1.200   0.1450   0.00000  -0.00106  -0.0017   0.0000   0.0000
   1.300   0.1571   0.00000  -0.00106  -0.0018   0.0000   0.0000
   1.400   0.1692   0.00000  -0.00106  -0.0020   0.0000   0.0000
   1.500   0.1812   0.00000  -0.00106  -0.0021   0.0000   0.0000
   1.600   0.1933   0.00000  -0.00106  -0.0022   0.0000   0.0000
   1.700   0.2054   0.00000  -0.00106  -0.0024   0.0000   0.0000
   1.800   0.2175   0.00000  -0.00106  -0.0025   0.0000   0.0000
   1.900   0.2296   0.00000  -0.00106  -0.0027   0.0000   0.0000
   2.000   0.2416   0.00000  -0.00106  -0.0028   0.0000   0.0000
   2.100   0.2537   0.00000  -0.00106  -0.0029   0.0000   0.0000
   2.200   0.2658   0.00000  -0.00106  -0.0031   0.0000   0.0000
   2.300   0.2779   0.00000  -0.00106  -0.0032   0.0000   0.0000
   2.400   0.2899   0.00000  -0.00106  -0.0034   0.0000   0.0000
   2.500   0.3020   0.00000  -0.00107  -0.0035   0.0000   0.0000
   2.600   0.3141   0.00000  -0.00107  -0.0036   0.0000   0.0000
   2.700   0.3261   0.00000  -0.00107  -0.0038   0.0000   0.0000
   2.800   0.3382   0.00000  -0.00107  -0.0039   0.0000   0.0000
   2.900   0.3503   0.00000  -0.00107  -0.0041   0.0000   0.0000
   3.000   0.3623   0.00000  -0.00107  -0.0042   0.0000   0.0000
   3.100   0.3744   0.00000  -0.00107  -0.0043   0.0000   0.0000
   3.200   0.3865   0.00000  -0.00107  -0.0045   0.0000   0.0000
   3.300   0.3985   0.00000  -0.00107  -0.0046   0.0000   0.0000
   3.400   0.4106   0.00000  -0.00107  -0.0048   0.0000   0.0000
   3.500   0.4227   0.00000  -0.00107  -0.0049   0.0000   0.0000
   3.600   0.4347   0.00000  -0.00107  -0.0050   0.0000   0.0000
   3.700   0.4468   0.00000  -0.00108  -0.0052   0.0000   0.0000
   3.800   0.4588   0.00000  -0.00108  -0.0053   0.0000   0.0000
   3.900   0.4709   0.00000  -0.00108  -0.0055   0.0000   0.0000
   4.000   0.4830   0.00000  -0.00108  -0.0056   0.0000   0.0000
   4.100   0.4950   0.00000  -0.00108  -0.0057   0.0000   0.0000
   4.200   0.5071   0.00000  -0.00108  -0.0059   0.0000   0.0000
   4.300   0.5191   0.00000  -0.00108  -0.0060   0.0000   0.0000
   4.400   0.5312   0.00000  -0.00108  -0.0062   0.0000   0.0000
   4.500   0.5432   0.00000  -0.00108  -0.0063   0.0000   0.0000
   4.600   0.5552   0.00000  -0.00109  -0.0064   0.0000   0.0000
   4.700   0.5673   0.00000  -0.00109  -0.0066   0.0000   0.0000
   4.800   0.5793   0.00000  -0.00109  -0.0067   0.0000   0.0000
   4.900   0.5914   0.00000  -0.00109  -0.0068   0.0000   0.0000
   5.000   0.6034   0.00000  -0.00109  -0.0070   0.0000   0.0000
   5.100   0.6154   0.00000  -0.00109  -0.0071   0.0000   0.0000
   5.200   0.6275   0.00000  -0.00109  -0.0073   0.0000   0.0000
   5.300   0.6395   0.00000  -0.00109  -0.0074   0.0000   0.0000
   5.400   0.6515   0.00000  -0.00110  -0.0075   0.0000   0.0000
   5.500   0.6636   0.00000  -0.00110  -0.0077   0.0000   0.0000
   5.600   0.6756   0.00000  -0.00110  -0.0078   0.0000   0.0000
   5.700   0.6876   0.00000  -0.00110  -0.0079   0.0000   0.0000
   5.800   0.6996   0.00000  -0.00110  -0.0081   0.0000   0.0000
   5.900   0.7117   0.00000  -0.00110  -0.0082   0.0000   0.0000
   6.000   0.7237   0.00000  -0.00110  -0.0084   0.0000   0.0000
   6.100   0.7357   0.00000  -0.00111  -0.0085   0.0000   0.0000
   6.200   0.7477   0.00000  -0.00111  -0.0086   0.0000   0.0000
   6.300   0.7597   0.00000  -0.00111  -0.0088   0.0000   0.0000
   6.400   0.7717   0.00000  -0.00111  -0.0089   0.0000   0.0000
   6.500   0.7837   0.00000  -0.00111  -0.0090   0.0000   0.0000
   6.600   0.7957   0.00000  -0.00111  -0.0092   0.0000   0.0000
   6.700   0.8078   0.00000  -0.00112  -0.0093   0.0000   0.0000
   6.800   0.8198   0.00000  -0.00112  -0.0095   0.0000   0.0000
   6.900   0.8317   0.00000  -0.00112  -0.0096   0.0000   0.0000
   7.000   0.8437   0.00000  -0.00112  -0.0097   0.0000   0.0000
   7.100   0.8557   0.00000  -0.00112  -0.0099   0.0000   0.0000
   7.200   0.8677   0.00000  -0.00113  -0.0100   0.0000   0.0000
   7.300   0.8797   0.00000  -0.00113  -0.0101   0.0000   0.0000
   7.400   0.8917   0.00000  -0.00113  -0.0103   0.0000   0.0000
   7.500   0.9037   0.00000  -0.00113  -0.0104   0.0000   0.0000
   7.600   0.9157   0.00000  -0.00113  -0.0105   0.0000   0.0000
   7.700   0.9276   0.00000  -0.00114  -0.0107   0.0000   0.0000
   7.800   0.9396   0.00000  -0.00114  -0.0108   0.0000   0.0000
   7.900   0.9516   0.00000  -0.00114  -0.0109   0.0000   0.0000
   8.000   0.9635   0.00000  -0.00114  -0.0111   0.0000   0.0000
   8.100   0.9755   0.00000  -0.00114  -0.0112   0.0000   0.0000
   8.200   0.9875   0.00000  -0.00115  -0.0114   0.0000   0.0000
   8.300   0.9994   0.00000  -0.00115  -0.0115   0.0000   0.0000
   8.400   1.0114   0.00000  -0.00115  -0.0116   0.0000   0.0000
   8.500   1.0233   0.00000  -0.00115  -0.0118   0.0000   0.0000
   8.600   1.0353   0.00000  -0.00115  -0.0119   0.0000   0.0000
   8.700   1.0472   0.00000  -0.00116  -0.0120   0.0000   0.0000
   8.800   1.0592   0.00000  -0.00116  -0.0122   0.0000   0.0000
   8.900   1.0711   0.00000  -0.00116  -0.0123   0.0000   0.0000
   9.000   1.0831   0.00000  -0.00116  -0.0124   0.0000   0.0000
   9.100   1.0950   0.00000  -0.00117  -0.0126   0.0000   0.0000
   9.200   1.1069   0.00000  -0.00117  -0.0127   0.0000   0.0000
   9.300   1.1188   0.00000  -0.00117  -0.0128   0.0000   0.0000
   9.400   1.1308   0.00000  -0.00117  -0.0130   0.0000   0.0000
   9.500   1.1427   0.00000  -0.00118  -0.0131   0.0000   0.0000
   9.600   1.1546   0.00000  -0.00118  -0.0132   0.0000   0.0000
   9.700   1.1665   0.00000  -0.00118  -0.0134   0.0000   0.0000
   9.800   1.1784   0.00000  -0.00118  -0.0135   0.0000   0.0000
   9.900   1.1903   0.00000  -0.00119  -0.0136   0.0000   0.0000
  10.000   1.2022   0.00000  -0.00119  -0.0138   0.0000   0.0000
  10.100   1.2141   0.00000  -0.00119  -0.0139   0.0000   0.0000
  10.200   1.2260   0.00000  -0.00119  -0.0140   0.0000   0.0000
  10.300   1.2379   0.00000  -0.00120  -0.0141   0.0000   0.0000
  10.400   1.2498   0.00000  -0.00120  -0.0143   0.0000   0.0000
  10.500   1.2617   0.00000  -0.00120  -0.0144   0.0000   0.0000
  10.600   1.2736   0.00000  -0.00120  -0.0145   0.0000   0.0000
  10.700   1.2854   0.00000  -0.00121  -0.0147   0.0000   0.0000
  10.800   1.2973   0.00000  -0.00121  -0.0148   0.0000   0.0000
  10.900   1.3092   0.00000  -0.00121  -0.0149   0.0000   0.0000
  11.000   1.3210   0.00000  -0.00122  -0.0151   0.0000   0.0000
  11.100   1.3329   0.00000  -0.00122  -0.0152   0.0000   0.0000
  11.200   1.3448   0.00000  -0.00122  -0.0153   0.0000   0.0000
  11.300   1.3566   0.00000  -0.00122  -0.0155   0.0000   0.0000
  11.400   1.3685   0.00000  -0.00123  -0.0156   0.0000   0.0000
  11.500   1.3803   0.00000  -0.00123  -0.0157   0.0000   0.0000
  11.600   1.3921   0.00000  -0.00123  -0.0158   0.0000   0.0000
  11.700   1.4040   0.00000  -0.00124  -0.0160   0.0000   0.0000
  11.800   1.4158   0.00000  -0.00124  -0.0161   0.0000   0.0000
  11.900   1.4276   0.00000  -0.00124  -0.0162   0.0000   0.0000
  12.000   1.4395   0.00000  -0.00124  -0.0164   0.0000   0.0000
  12.100   1.4513   0.00000  -0.00125  -0.0165   0.0000   0.0000
  12.200   1.4631   0.00000  -0.00125  -0.0166   0.0000   0.0000
  12.300   1.4749   0.00000  -0.00125  -0.0167   0.0000   0.0000
  12.400   1.4867   0.00000  -0.00126  -0.0169   0.0000   0.0000
  12.500   1.4985   0.00000  -0.00126  -0.0170   0.0000   0.0000
  12.600   1.5103   0.00000  -0.00126  -0.0171   0.0000   0.0000
  12.700   1.5221   0.00000  -0.00127  -0.0172   0.0000   0.0000
  12.800   1.5339   0.00000  -0.00127  -0.0174   0.0000   0.0000
  12.900   1.5457   0.00000  -0.00127  -0.0175   0.0000   0.0000
  13.000   1.5574   0.00000  -0.00128  -0.0176   0.0000   0.0000
  13.100   1.5692   0.00000  -0.00128  -0.0178   0.0000   0.0000
  13.200   1.5810   0.00000  -0.00128  -0.0179   0.0000   0.0000
  13.300   1.5927   0.00000  -0.00128  -0.0180   0.0000   0.0000
  13.400   1.6045   0.00000  -0.00129  -0.0181   0.0000   0.0000
  13.500   1.6163   0.00000  -0.00129  -0.0183   0.0000   0.0000
  13.600   1.6280   0.00000  -0.00129  -0.0184   0.0000   0.0000
  13.700   1.6397   0.00000  -0.00130  -0.0185   0.0000   0.0000
  13.800   1.6515   0.00000  -0.00130  -0.0186   0.0000   0.0000
  13.900   1.6632   0.00000  -0.00130  -0.0188   0.0000   0.0000
  14.000   1.6749   0.00000  -0.00131  -0.0189   0.0000   0.0000
  14.100   1.6867   0.00000  -0.00131  -0.0190   0.0000   0.0000
  14.200   1.6984   0.00000  -0.00132  -0.0191   0.0000   0.0000
  14.300   1.7101   0.00000  -0.00132  -0.0192   0.0000   0.0000
  14.400   1.7218   0.00000  -0.00132  -0.0194   0.0000   0.0000
  14.500   1.7335   0.00000  -0.00133  -0.0195   0.0000   0.0000
  14.600   1.7452   0.00000  -0.00133  -0.0196   0.0000   0.0000
  14.700   1.7569   0.00000  -0.00133  -0.0197   0.0000   0.0000
  14.800   1.7686   0.00000  -0.00134  -0.0199   0.0000   0.0000
  14.900   1.7803   0.00000  -0.00134  -0.0200   0.0000   0.0000
  15.000   1.7919   0.00000  -0.00134  -0.0201   0.0000   0.0000
  15.100   1.8036   0.00000  -0.00135  -0.0202   0.0000   0.0000
  15.200   1.8153   0.00000  -0.00135  -0.0203   0.0000   0.0000
  15.300   1.8269   0.00000  -0.00135  -0.0205   0.0000   0.0000
  15.400   1.8386   0.00000  -0.00136  -0.0206   0.0000   0.0000
  15.500   1.8502   0.00000  -0.00136  -0.0207   0.0000   0.0000
  15.600   1.8619   0.00000  -0.00136  -0.0208   0.0000   0.0000
  15.700   1.8735   0.00000  -0.00137  -0.0209   0.0000   0.0000
  15.800   1.8852   0.00000  -0.00137  -0.0211   0.0000   0.0000
  15.900   1.8968   0.00000  -0.00138  -0.0212   0.0000   0.0000
  16.000   1.9084   0.00000  -0.00138  -0.0213   0.0000   0.0000
  16.100   1.9200   0.00000  -0.00138  -0.0214   0.0000   0.0000
  16.200   1.9316   0.00000  -0.00139  -0.0215   0.0000   0.0000
  16.300   1.9432   0.00000  -0.00139  -0.0217   0.0000   0.0000
  16.400   1.9548   0.00000  -0.00139  -0.0218   0.0000   0.0000
  16.500   1.9664   0.00000  -0.00140  -0.0219   0.0000   0.0000
  16.600   1.9780   0.00000  -0.00140  -0.0220   0.0000   0.0000
  16.700   1.9896   0.00000  -0.00141  -0.0221   0.0000   0.0000
  16.800   2.0011   0.00000  -0.00141  -0.0222   0.0000   0.0000
  16.900   2.0127   0.00000  -0.00141  -0.0224   0.0000   0.0000
  17.000   2.0243   0.00000  -0.00142  -0.0225   0.0000   0.0000
  17.100   2.0358   0.00000  -0.00142  -0.0226   0.0000   0.0000
  17.200   2.0474   0.00000  -0.00143  -0.0227   0.0000   0.0000
  17.300   2.0589   0.00000  -0.00143  -0.0228   0.0000   0.0000
  17.400   2.0705   0.00000  -0.00143  -0.0229   0.0000   0.0000
  17.500   2.0820   0.00000  -0.00144  -0.0231   0.0000   0.0000
  17.600   2.0935   0.00000  -0.00144  -0.0232   0.0000   0.0000
  17.700   2.1050   0.00000  -0.00145  -0.0233   0.0000   0.0000
  17.800   2.1165   0.00000  -0.00145  -0.0234   0.0000   0.0000
  17.900   2.1280   0.00000  -0.00145  -0.0235   0.0000   0.0000
  18.000   2.1395   0.00000  -0.00146  -0.0236   0.0000   0.0000
  18.100   2.1510   0.00000  -0.00146  -0.0237   0.0000   0.0000
  18.200   2.1625   0.00000  -0.00147  -0.0239   0.0000   0.0000
  18.300   2.1740   0.00000  -0.00147  -0.0240   0.0000   0.0000
  18.400   2.1855   0.00000  -0.00147  -0.0241   0.0000   0.0000
  18.500   2.1969   0.00000  -0.00148  -0.0242   0.0000   0.0000
  18.600   2.2084   0.00000  -0.00148  -0.0243   0.0000   0.0000
  18.700   2.2198   0.00000  -0.00149  -0.0244   0.0000   0.0000
  18.800   2.2313   0.00000  -0.00149  -0.0245   0.0000   0.0000
  18.900   2.2427   0.00000  -0.00149  -0.0246   0.0000   0.0000
  19.000   2.2541   0.00000  -0.00150  -0.0248   0.0000   0.0000
  19.100   2.2656   0.00000  -0.00150  -0.0249   0.0000   0.0000
  19.200   2.2770   0.00000  -0.00151  -0.0250   0.0000   0.0000
  19.300   2.2884   0.00000  -0.00151  -0.0251   0.0000   0.0000
  19.400   2.2998   0.00000  -0.00152  -0.0252   0.0000   0.0000
  19.500   2.3112   0.00000  -0.00152  -0.0253   0.0000   0.0000
  19.600   2.3226   0.00000  -0.00152  -0.0254   0.0000   0.0000
  19.700   2.3340   0.00000  -0.00153  -0.0255   0.0000   0.0000
  19.800   2.3453   0.00000  -0.00153  -0.0256   0.0000   0.0000
  19.900   2.3567   0.00000  -0.00154  -0.0257   0.0000   0.0000
  20.000   2.3681   0.00000  -0.00154  -0.0258   0.0000   0.0000
  20.100   2.3794   0.00000  -0.00154  -0.0259   0.0000   0.0000
  20.200   2.3908   0.00000  -0.00155  -0.0261   0.0000   0.0000
  20.300   2.4021   0.00000  -0.00155  -0.0262   0.0000   0.0000
  20.400   2.4134   0.00000  -0.00156  -0.0263   0.0000   0.0000
  20.500   2.4248   0.00000  -0.00156  -0.0264   0.0000   0.0000
  20.600   2.4361   0.00000  -0.00157  -0.0265   0.0000   0.0000
  20.700   2.4474   0.00000  -0.00157  -0.0266   0.0000   0.0000
  20.800   2.4587   0.00000  -0.00158  -0.0267   0.0000   0.0000
  20.900   2.4700   0.00000  -0.00158  -0.0268   0.0000   0.0000
  21.000   2.4813   0.00000  -0.00158  -0.0269   0.0000   0.0000
  21.100   2.4926   0.00000  -0.00159  -0.0270   0.0000   0.0000
  21.200   2.5038   0.00000  -0.00159  -0.0271   0.0000   0.0000
  21.300   2.5151   0.00000  -0.00160  -0.0272   0.0000   0.0000
  21.400   2.5264   0.00000  -0.00160  -0.0273   0.0000   0.0000
  21.500   2.5376   0.00000  -0.00161  -0.0274   0.0000   0.0000
  21.600   2.5488   0.00000  -0.00161  -0.0275   0.0000   0.0000
  21.700   2.5601   0.00000  -0.00161  -0.0276   0.0000   0.0000
  21.800   2.5713   0.00000  -0.00162  -0.0277   0.0000   0.0000
  21.900   2.5825   0.00000  -0.00162  -0.0278   0.0000   0.0000
  22.000   2.5937   0.00000  -0.00163  -0.0279   0.0000   0.0000
  22.100   2.6049   0.00000  -0.00163  -0.0280   0.0000   0.0000
  22.200   2.6161   0.00000  -0.00164  -0.0281   0.0000   0.0000
  22.300   2.6273   0.00000  -0.00164  -0.0282   0.0000   0.0000
  22.400   2.6385   0.00000  -0.00165  -0.0283   0.0000   0.0000
  22.500   2.6497   0.00000  -0.00165  -0.0284   0.0000   0.0000
  22.600   2.6608   0.00000  -0.00166  -0.0285   0.0000   0.0000
  22.700   2.6720   0.00000  -0.00166  -0.0286   0.0000   0.0000
  22.800   2.6831   0.00000  -0.00166  -0.0287   0.0000   0.0000
  22.900   2.6943   0.00000  -0.00167  -0.0288   0.0000   0.0000
  23.000   2.7054   0.00000  -0.00167  -0.0289   0.0000   0.0000
  23.100   2.7165   0.00000  -0.00168  -0.0290   0.0000   0.0000
  23.200   2.7276   0.00000  -0.00168  -0.0291   0.0000   0.0000
  23.300   2.7387   0.00000  -0.00169  -0.0292   0.0000   0.0000
  23.400   2.7498   0.00000  -0.00169  -0.0293   0.0000   0.0000
  23.500   2.7609   0.00000  -0.00170  -0.0294   0.0000   0.0000
  23.600   2.7720   0.00000  -0.00170  -0.0295   0.0000   0.0000
  23.700   2.7831   0.00000  -0.00170  -0.0296   0.0000   0.0000
  23.800   2.7941   0.00000  -0.00171  -0.0297   0.0000   0.0000
  23.900   2.8052   0.00000  -0.00171  -0.0298   0.0000   0.0000
  24.000   2.8162   0.00000  -0.00172  -0.0299   0.0000   0.0000
  24.100   2.8273   0.00000  -0.00172  -0.0300   0.0000   0.0000
  24.200   2.8383   0.00000  -0.00173  -0.0301   0.0000   0.0000
  24.300   2.8493   0.00000  -0.00173  -0.0302   0.0000   0.0000
  24.400   2.8604   0.00000  -0.00174  -0.0302   0.0000   0.0000
  24.500   2.8714   0.00000  -0.00174  -0.0303   0.0000   0.0000
  24.600   2.8823   0.00000  -0.00175  -0.0304   0.0000   0.0000
  24.700   2.8933   0.00000  -0.00175  -0.0305   0.0000   0.0000
  24.800   2.9043   0.00000  -0.00176  -0.0306   0.0000   0.0000
  24.900   2.9153   0.00000  -0.00176  -0.0307   0.0000   0.0000
  25.000   2.9262   0.00000  -0.00176  -0.0308   0.0000   0.0000
  25.100   2.9372   0.00000  -0.00177  -0.0309   0.0000   0.0000
  25.200   2.9481   0.00000  -0.00177  -0.0310   0.0000   0.0000
  25.300   2.9591   0.00000  -0.00178  -0.0311   0.0000   0.0000
  25.400   2.9700   0.00000  -0.00178  -0.0312   0.0000   0.0000
  25.500   2.9809   0.00000  -0.00179  -0.0312   0.0000   0.0000
  25.600   2.9918   0.00000  -0.00179  -0.0313   0.0000   0.0000
  25.700   3.0027   0.00000  -0.00180  -0.0314   0.0000   0.0000
  25.800   3.0136   0.00000  -0.00180  -0.0315   0.0000   0.0000
  25.900   3.0245   0.00000  -0.00181  -0.0316   0.0000   0.0000
  26.000   3.0353   0.00000  -0.00181  -0.0317   0.0000   0.0000
  26.100   3.0462   0.00000  -0.00181  -0.0318   0.0000   0.0000
  26.200   3.0571   0.00000  -0.00182  -0.0319   0.0000   0.0000
  26.300   3.0679   0.00000  -0.00182  -0.0319   0.0000   0.0000
  26.400   3.0787   0.00000  -0.00183  -0.0320   0.0000   0.0000
  26.500   3.0896   0.00000  -0.00183  -0.0321   0.0000   0.0000
  26.600   3.1004   0.00000  -0.00184  -0.0322   0.0000   0.0000
  26.700   3.1112   0.00000  -0.00184  -0.0323   0.0000   0.0000
  26.800   3.1220   0.00000  -0.00185  -0.0324   0.0000   0.0000
  26.900   3.1328   0.00000  -0.00185  -0.0324   0.0000   0.0000
  27.000   3.1435   0.00000  -0.00186  -0.0325   0.0000   0.0000
  27.100   3.1543   0.00000  -0.00186  -0.0326   0.0000   0.0000
  27.200   3.1650   0.00000  -0.00187  -0.0327   0.0000   0.0000
  27.300   3.1758   0.00000  -0.00187  -0.0328   0.0000   0.0000
  27.400   3.1865   0.00000  -0.00187  -0.0329   0.0000   0.0000
  27.500   3.1973   0.00000  -0.00188  -0.0329   0.0000   0.0000
  27.600   3.2080   0.00000  -0.00188  -0.0330   0.0000   0.0000
  27.700   3.2187   0.00000  -0.00189  -0.0331   0.0000   0.0000
  27.800   3.2294   0.00000  -0.00189  -0.0332   0.0000   0.0000
  27.900   3.2401   0.00000  -0.00190  -0.0332   0.0000   0.0000
  28.000   3.2508   0.00000  -0.00190  -0.0333   0.0000   0.0000
  28.100   3.2614   0.00000  -0.00191  -0.0334   0.0000   0.0000
  28.200   3.2721   0.00000  -0.00191  -0.0335   0.0000   0.0000
  28.300   3.2827   0.00000  -0.00192  -0.0336   0.0000   0.0000
  28.400   3.2934   0.00000  -0.00192  -0.0336   0.0000   0.0000
  28.500   3.3040   0.00000  -0.00193  -0.0337   0.0000   0.0000
  28.600   3.3146   0.00000  -0.00193  -0.0338   0.0000   0.0000
  28.700   3.3252   0.00000  -0.00193  -0.0339   0.0000   0.0000
  28.800   3.3358   0.00000  -0.00194  -0.0339   0.0000   0.0000
  28.900   3.3464   0.00000  -0.00194  -0.0340   0.0000   0.0000
  29.000   3.3570   0.00000  -0.00195  -0.0341   0.0000   0.0000
  29.100   3.3676   0.00000  -0.00195  -0.0342   0.0000   0.0000
  29.200   3.3781   0.00000  -0.00196  -0.0342   0.0000   0.0000
  29.300   3.3887   0.00000  -0.00196  -0.0343   0.0000   0.0000
  29.400   3.3992   0.00000  -0.00197  -0.0344   0.0000   0.0000
  29.500   3.4097   0.00000  -0.00197  -0.0345   0.0000   0.0000
  29.600   3.4202   0.00000  -0.00198  -0.0345   0.0000   0.0000
  29.700   3.4308   0.00000  -0.00198  -0.0346   0.0000   0.0000
  29.800   3.4413   0.00000  -0.00198  -0.0347   0.0000   0.0000
  29.900   3.4517   0.00000  -0.00199  -0.0347   0.0000   0.0000
  30.000   3.4622   0.00000  -0.00199  -0.0348   0.0000   0.0000
